Version 4
SHEET 1 2568 936
WIRE -448 -1424 -640 -1424
WIRE -272 -1424 -448 -1424
WIRE -448 -1376 -448 -1424
WIRE -272 -1344 -272 -1424
WIRE 304 -1312 240 -1312
WIRE 464 -1312 368 -1312
WIRE 640 -1312 544 -1312
WIRE 800 -1312 640 -1312
WIRE 864 -1312 800 -1312
WIRE -640 -1264 -640 -1328
WIRE 240 -1264 240 -1312
WIRE 640 -1264 640 -1312
WIRE 800 -1264 800 -1312
WIRE -448 -1248 -448 -1312
WIRE -272 -1200 -272 -1264
WIRE 240 -1152 240 -1184
WIRE 640 -1152 640 -1200
WIRE 640 -1152 240 -1152
WIRE 800 -1152 800 -1184
WIRE 800 -1152 640 -1152
WIRE 640 -1120 640 -1152
WIRE 304 -1056 240 -1056
WIRE 464 -1056 368 -1056
WIRE 640 -1056 544 -1056
WIRE 800 -1056 640 -1056
WIRE 864 -1056 800 -1056
WIRE -272 -1024 -272 -1120
WIRE -272 -1024 -320 -1024
WIRE -96 -1024 -272 -1024
WIRE -48 -1024 -96 -1024
WIRE 80 -1024 32 -1024
WIRE 240 -1008 240 -1056
WIRE 640 -1008 640 -1056
WIRE 800 -1008 800 -1056
WIRE -272 -992 -272 -1024
WIRE -96 -928 -96 -1024
WIRE -48 -928 -96 -928
WIRE 80 -928 80 -1024
WIRE 80 -928 16 -928
WIRE -432 -912 -464 -912
WIRE -320 -912 -352 -912
WIRE 240 -896 240 -928
WIRE 640 -896 640 -944
WIRE 640 -896 240 -896
WIRE 800 -896 800 -928
WIRE 800 -896 640 -896
WIRE 80 -864 80 -928
WIRE 640 -864 640 -896
WIRE -272 -752 -272 -896
WIRE 80 -752 80 -800
WIRE -816 -576 -928 -576
WIRE -336 -576 -400 -576
WIRE 960 -544 928 -544
WIRE 1152 -544 1120 -544
WIRE 960 -528 960 -544
WIRE -816 -512 -928 -512
WIRE -320 -512 -400 -512
WIRE -256 -512 -320 -512
WIRE 1152 -512 1152 -544
WIRE 960 -416 960 -448
WIRE 1024 -416 960 -416
WIRE 1152 -416 1152 -432
WIRE 1216 -416 1152 -416
WIRE -256 -400 -256 -432
WIRE 960 -400 960 -416
WIRE 1152 -400 1152 -416
WIRE -816 -384 -928 -384
WIRE -320 -384 -320 -512
WIRE -320 -384 -400 -384
WIRE 0 -352 -32 -352
WIRE 144 -352 0 -352
WIRE 368 -352 208 -352
WIRE 432 -352 368 -352
WIRE 576 -352 512 -352
WIRE -864 -320 -928 -320
WIRE -816 -320 -864 -320
WIRE -336 -320 -400 -320
WIRE 960 -288 960 -320
WIRE 1152 -288 1152 -320
WIRE -816 -256 -928 -256
WIRE -336 -256 -400 -256
WIRE 0 -256 0 -352
WIRE 48 -256 0 -256
WIRE 224 -256 112 -256
WIRE 368 -256 368 -352
WIRE 368 -256 304 -256
WIRE 960 -224 928 -224
WIRE 1072 -224 1040 -224
WIRE 1184 -224 1152 -224
WIRE -864 -192 -864 -320
WIRE -816 -192 -864 -192
WIRE -224 -192 -400 -192
WIRE 960 -192 960 -224
WIRE 1072 -176 1072 -224
WIRE 1184 -176 1184 -224
WIRE -816 -128 -928 -128
WIRE -336 -128 -400 -128
WIRE 960 -80 960 -112
WIRE 1072 -80 1072 -112
WIRE 1184 -80 1184 -112
WIRE -224 -16 -224 -192
FLAG -336 -320 0
FLAG -336 -256 VGG
FLAG -224 -16 0
FLAG -256 -400 0
FLAG -928 -384 vosc
FLAG -272 -752 0
FLAG 640 -1120 0
FLAG 640 -864 0
FLAG -464 -912 VGG
FLAG 960 -288 0
FLAG 1152 -288 0
FLAG 1120 -544 Vref
FLAG -336 -576 Vref
FLAG 1216 -416 Vcmp
FLAG -336 -128 Vcom
FLAG 960 -80 0
FLAG 928 -224 rt
FLAG 1040 -224 ct
FLAG 1072 -80 0
FLAG -928 -320 ct
FLAG -928 -256 rt
FLAG 1152 -224 cst
FLAG 1184 -80 0
FLAG -928 -128 cst
FLAG -928 -576 Vfb
FLAG -928 -512 Vcmp
FLAG 80 -752 0
FLAG -320 -1024 Vds
FLAG 928 -544 Vo2
FLAG 864 -1056 Vo2
FLAG 864 -1312 Vo1
FLAG -448 -1248 0
FLAG -272 -1424 Vd
FLAG -640 -1264 0
FLAG 368 -352 Vfb
FLAG -32 -352 Vcom
FLAG 576 -352 Vfb_1
FLAG 1024 -416 Vfb_1
SYMBOL SG3525A -672 -480 R0
SYMATTR InstName U1
SYMATTR Value SG3525A
SYMBOL voltage -256 -528 R0
WINDOW 123 0 0 Left 0
WINDOW 39 0 0 Left 0
SYMATTR InstName V1
SYMATTR Value 16
SYMBOL ind2 -288 -1360 R0
SYMATTR InstName L1
SYMATTR Value {Lm}
SYMATTR Type ind
SYMBOL ind2 256 -912 R180
WINDOW 0 36 80 Left 2
WINDOW 3 36 40 Left 2
SYMATTR InstName L2
SYMATTR Value {L22}
SYMATTR Type ind
SYMBOL diode 304 -1040 R270
WINDOW 0 32 32 VTop 2
WINDOW 3 0 32 VBottom 2
SYMATTR InstName D1
SYMBOL res 560 -1072 R90
WINDOW 0 0 56 VBottom 2
WINDOW 3 32 56 VTop 2
SYMATTR InstName R3
SYMATTR Value 1m
SYMBOL cap 624 -1008 R0
SYMATTR InstName C3
SYMATTR Value 4.7µ
SYMBOL res 784 -1024 R0
SYMATTR InstName R4
SYMATTR Value 100
SYMBOL ind2 256 -1168 R180
WINDOW 0 36 80 Left 2
WINDOW 3 36 40 Left 2
SYMATTR InstName L3
SYMATTR Value {L21}
SYMATTR Type ind
SYMBOL diode 304 -1296 R270
WINDOW 0 32 32 VTop 2
WINDOW 3 0 32 VBottom 2
SYMATTR InstName D2
SYMBOL res 560 -1328 R90
WINDOW 0 0 56 VBottom 2
WINDOW 3 32 56 VTop 2
SYMATTR InstName R5
SYMATTR Value 1m
SYMBOL cap 624 -1264 R0
SYMATTR InstName C4
SYMATTR Value 4.7µ
SYMBOL res 784 -1280 R0
SYMATTR InstName R6
SYMATTR Value 100
SYMBOL res 944 -544 R0
SYMATTR InstName R8
SYMATTR Value 10k
SYMBOL res 944 -416 R0
SYMATTR InstName R9
SYMATTR Value 1.2k
SYMBOL res 1136 -528 R0
SYMATTR InstName R10
SYMATTR Value 1.8k
SYMBOL res 1136 -416 R0
SYMATTR InstName R11
SYMATTR Value 1k
SYMBOL res 944 -208 R0
SYMATTR InstName RT
SYMATTR Value 3.9k
SYMBOL cap 1056 -176 R0
SYMATTR InstName CT
SYMATTR Value 2.2n
SYMBOL cap 1168 -176 R0
SYMATTR InstName Cst
SYMATTR Value 5µ
SYMBOL nmos -320 -992 R0
SYMATTR InstName M1
SYMATTR Value IRFBG20
SYMBOL res -336 -928 R90
WINDOW 0 0 56 VBottom 2
WINDOW 3 32 56 VTop 2
SYMATTR InstName R1
SYMATTR Value 100
SYMBOL ind2 -288 -1216 R0
SYMATTR InstName L4
SYMATTR Value {Ld}
SYMBOL res 48 -1040 R90
WINDOW 0 0 56 VBottom 2
WINDOW 3 32 56 VTop 2
SYMATTR InstName R7
SYMATTR Value 390
SYMBOL diode -48 -912 R270
WINDOW 0 32 32 VTop 2
WINDOW 3 0 32 VBottom 2
SYMATTR InstName D3
SYMBOL cap 64 -864 R0
SYMATTR InstName C1
SYMATTR Value 3n
SYMBOL cap -464 -1376 R0
SYMATTR InstName C2
SYMATTR Value 100µ
SYMBOL ZZZ\\Source\\rectified_voltage -720 -1424 R0
SYMATTR InstName U3
SYMBOL cap 208 -368 R90
WINDOW 0 0 32 VBottom 2
WINDOW 3 32 32 VTop 2
SYMATTR InstName C5
SYMATTR Value 1n
SYMBOL cap 112 -272 R90
WINDOW 0 0 32 VBottom 2
WINDOW 3 32 32 VTop 2
SYMATTR InstName C6
SYMATTR Value 470n
SYMBOL res 320 -272 R90
WINDOW 0 0 56 VBottom 2
WINDOW 3 32 56 VTop 2
SYMATTR InstName R12
SYMATTR Value 22k
SYMBOL res 528 -368 R90
WINDOW 0 0 56 VBottom 2
WINDOW 3 32 56 VTop 2
SYMATTR InstName R2
SYMATTR Value 100k
TEXT -896 88 Left 2 !.tran 0 20m 0 startup
TEXT -808 -632 Left 2 !.inc SG3525A.sub
TEXT 32 -1352 Left 2 !K1 L1 L2 L3 1
TEXT -896 128 Left 2 !.model MYSW SW(Ron=0.01 Roff=10Meg Vt=.5 Vh=.4 Lser=0 Vser=0)
TEXT -896 160 Left 2 !.param Fsw=75k Ts={1/Fsw} D=0.25 Ton={D*Ts}
TEXT -896 200 Left 2 !.param AL=4700n N1=25 N21=12 N22=4
TEXT -896 240 Left 2 !.param L1={AL*N1*N1} L21={AL*N21*N21} L22={AL*N22*N22}
TEXT -896 280 Left 2 !.param K=.95 Lm={K*L1} Ld={L1-Lm}
