Version 4
SHEET 1 2568 936
WIRE -800 -1408 -992 -1408
WIRE -400 -1408 -800 -1408
WIRE -800 -1360 -800 -1408
WIRE 304 -1312 240 -1312
WIRE 464 -1312 368 -1312
WIRE 640 -1312 544 -1312
WIRE 800 -1312 640 -1312
WIRE 864 -1312 800 -1312
WIRE 1216 -1312 1104 -1312
WIRE 1696 -1312 1632 -1312
WIRE 1984 -1312 1952 -1312
WIRE 2176 -1312 2144 -1312
WIRE 1984 -1296 1984 -1312
WIRE 2176 -1280 2176 -1312
WIRE -400 -1264 -400 -1408
WIRE 240 -1264 240 -1312
WIRE 640 -1264 640 -1312
WIRE 800 -1264 800 -1312
WIRE -992 -1248 -992 -1312
WIRE 1216 -1248 1104 -1248
WIRE 1712 -1248 1632 -1248
WIRE 1824 -1248 1712 -1248
WIRE -800 -1232 -800 -1296
WIRE 1824 -1216 1824 -1248
WIRE 1984 -1184 1984 -1216
WIRE 2048 -1184 1984 -1184
WIRE 2176 -1184 2176 -1200
WIRE 2240 -1184 2176 -1184
WIRE 1984 -1168 1984 -1184
WIRE 2176 -1168 2176 -1184
WIRE 240 -1152 240 -1184
WIRE 640 -1152 640 -1200
WIRE 640 -1152 240 -1152
WIRE 800 -1152 800 -1184
WIRE 800 -1152 640 -1152
WIRE 640 -1120 640 -1152
WIRE 1216 -1120 1104 -1120
WIRE 1712 -1120 1712 -1248
WIRE 1712 -1120 1632 -1120
WIRE 1824 -1104 1824 -1136
WIRE 304 -1056 240 -1056
WIRE 464 -1056 368 -1056
WIRE 640 -1056 544 -1056
WIRE 800 -1056 640 -1056
WIRE 864 -1056 800 -1056
WIRE 1168 -1056 1104 -1056
WIRE 1216 -1056 1168 -1056
WIRE 1696 -1056 1632 -1056
WIRE 1984 -1056 1984 -1088
WIRE 2176 -1056 2176 -1088
WIRE -400 -1008 -400 -1184
WIRE -400 -1008 -448 -1008
WIRE -224 -1008 -400 -1008
WIRE -176 -1008 -224 -1008
WIRE -48 -1008 -96 -1008
WIRE 240 -1008 240 -1056
WIRE 640 -1008 640 -1056
WIRE 800 -1008 800 -1056
WIRE 1216 -992 1104 -992
WIRE 1696 -992 1632 -992
WIRE 1984 -992 1952 -992
WIRE 2096 -992 2064 -992
WIRE 2208 -992 2176 -992
WIRE 2384 -992 2336 -992
WIRE 2512 -992 2464 -992
WIRE -400 -976 -400 -1008
WIRE 1984 -960 1984 -992
WIRE 2096 -944 2096 -992
WIRE 2208 -944 2208 -992
WIRE 1168 -928 1168 -1056
WIRE 1216 -928 1168 -928
WIRE 1808 -928 1632 -928
WIRE -224 -912 -224 -1008
WIRE -176 -912 -224 -912
WIRE -48 -912 -48 -1008
WIRE -48 -912 -112 -912
WIRE -560 -896 -592 -896
WIRE -448 -896 -480 -896
WIRE 240 -896 240 -928
WIRE 640 -896 640 -944
WIRE 640 -896 240 -896
WIRE 800 -896 800 -928
WIRE 800 -896 640 -896
WIRE 640 -864 640 -896
WIRE 1216 -864 1104 -864
WIRE 1696 -864 1632 -864
WIRE -48 -848 -48 -912
WIRE 1984 -848 1984 -880
WIRE 2096 -848 2096 -880
WIRE 2208 -848 2208 -880
WIRE 1808 -752 1808 -928
WIRE -800 -736 -800 -992
WIRE -400 -736 -400 -880
WIRE -48 -736 -48 -784
FLAG 1696 -1056 0
FLAG 1696 -992 VGG
FLAG 1808 -752 0
FLAG 1824 -1104 0
FLAG 1104 -1120 vosc
FLAG -400 -736 0
FLAG -800 -736 0
FLAG 640 -1120 0
FLAG 640 -864 0
FLAG -592 -896 VGG
FLAG 1984 -1056 0
FLAG 2048 -1184 Vfb
FLAG 2176 -1056 0
FLAG 2144 -1312 Vref
FLAG 1696 -1312 Vref
FLAG 2240 -1184 Vcmp
FLAG 1696 -864 Vcom
FLAG 2336 -992 Vcom
FLAG 2512 -992 Vfb
FLAG 1984 -848 0
FLAG 1952 -992 rt
FLAG 2064 -992 ct
FLAG 2096 -848 0
FLAG 1104 -1056 ct
FLAG 1104 -992 rt
FLAG 2176 -992 cst
FLAG 2208 -848 0
FLAG 1104 -864 cst
FLAG 1104 -1312 Vfb
FLAG 1104 -1248 Vcmp
FLAG -48 -736 0
FLAG -448 -1008 Vds
FLAG 1952 -1312 Vo2
FLAG 864 -1056 Vo2
FLAG 864 -1312 Vo1
FLAG -800 -1232 0
FLAG -400 -1408 Vd
FLAG -992 -1248 0
SYMBOL SG3525A 1360 -1216 R0
SYMATTR InstName U1
SYMATTR Value SG3525A
SYMBOL voltage 1824 -1232 R0
WINDOW 123 0 0 Left 0
WINDOW 39 0 0 Left 0
SYMATTR InstName V1
SYMATTR Value 16
SYMBOL res 2480 -1008 R90
WINDOW 0 0 56 VBottom 2
WINDOW 3 32 56 VTop 2
SYMATTR InstName R2
SYMATTR Value 47k
SYMBOL voltage -800 -1088 R0
WINDOW 123 0 0 Left 0
WINDOW 39 0 0 Left 0
SYMATTR InstName Vd
SYMATTR Value 300
SYMBOL ind2 -416 -1280 R0
SYMATTR InstName L1
SYMATTR Value {L1}
SYMATTR Type ind
SYMBOL ind2 256 -912 R180
WINDOW 0 36 80 Left 2
WINDOW 3 36 40 Left 2
SYMATTR InstName L2
SYMATTR Value {L22}
SYMATTR Type ind
SYMBOL diode 304 -1040 R270
WINDOW 0 32 32 VTop 2
WINDOW 3 0 32 VBottom 2
SYMATTR InstName D1
SYMBOL res 560 -1072 R90
WINDOW 0 0 56 VBottom 2
WINDOW 3 32 56 VTop 2
SYMATTR InstName R3
SYMATTR Value 1m
SYMBOL cap 624 -1008 R0
SYMATTR InstName C3
SYMATTR Value 47µ
SYMBOL res 784 -1024 R0
SYMATTR InstName R4
SYMATTR Value 47
SYMBOL ind2 256 -1168 R180
WINDOW 0 36 80 Left 2
WINDOW 3 36 40 Left 2
SYMATTR InstName L3
SYMATTR Value {L21}
SYMATTR Type ind
SYMBOL diode 304 -1296 R270
WINDOW 0 32 32 VTop 2
WINDOW 3 0 32 VBottom 2
SYMATTR InstName D2
SYMBOL res 560 -1328 R90
WINDOW 0 0 56 VBottom 2
WINDOW 3 32 56 VTop 2
SYMATTR InstName R5
SYMATTR Value 1m
SYMBOL cap 624 -1264 R0
SYMATTR InstName C4
SYMATTR Value 47µ
SYMBOL res 784 -1280 R0
SYMATTR InstName R6
SYMATTR Value 47
SYMBOL res 1968 -1312 R0
SYMATTR InstName R8
SYMATTR Value 10k
SYMBOL res 1968 -1184 R0
SYMATTR InstName R9
SYMATTR Value 1.2k
SYMBOL res 2160 -1296 R0
SYMATTR InstName R10
SYMATTR Value 2.2k
SYMBOL res 2160 -1184 R0
SYMATTR InstName R11
SYMATTR Value 1k
SYMBOL res 1968 -976 R0
SYMATTR InstName RT
SYMATTR Value 3.9k
SYMBOL cap 2080 -944 R0
SYMATTR InstName CT
SYMATTR Value 2.2n
SYMBOL cap 2192 -944 R0
SYMATTR InstName Cst
SYMATTR Value 5µ
SYMBOL nmos -448 -976 R0
SYMATTR InstName M1
SYMATTR Value IRFBG20
SYMBOL res -464 -912 R90
WINDOW 0 0 56 VBottom 2
WINDOW 3 32 56 VTop 2
SYMATTR InstName R1
SYMATTR Value 100
SYMBOL ind2 -224 -1216 R0
SYMATTR InstName L4
SYMATTR Value {Ld}
SYMBOL res -80 -1024 R90
WINDOW 0 0 56 VBottom 2
WINDOW 3 32 56 VTop 2
SYMATTR InstName R7
SYMATTR Value 6.8k
SYMBOL diode -176 -896 R270
WINDOW 0 32 32 VTop 2
WINDOW 3 0 32 VBottom 2
SYMATTR InstName D3
SYMBOL cap -64 -848 R0
SYMATTR InstName C1
SYMATTR Value 120p
SYMBOL cap -816 -1360 R0
SYMATTR InstName C2
SYMATTR Value 47µ
SYMBOL ZZZ\\Source\\rectified_voltage -1072 -1408 R0
SYMATTR InstName U3
TEXT 1944 -744 Left 2 !.tran 0 20m 0 startup
TEXT 1224 -1368 Left 2 !.inc SG3525A.sub
TEXT 32 -1352 Left 2 !K1 L1 L2 L3 1
TEXT 144 -768 Left 2 !.model MYSW SW(Ron=0.01 Roff=10Meg Vt=.5 Vh=.4 Lser=0 Vser=0)
TEXT 144 -736 Left 2 !.param Fsw=75k Ts={1/Fsw} D=0.25 Ton={D*Ts}
TEXT 144 -696 Left 2 !.param AL=4700n N1=25 N21=12 N22=4
TEXT 144 -656 Left 2 !.param L1={AL*N1*N1} L21={AL*N21*N21} L22={AL*N22*N22}
TEXT 144 -616 Left 2 !.param K=.95 Lm={K*L1} Ld={L1-Lm}
