Version 4
SHEET 1 1024 856
WIRE -192 -336 -848 -336
WIRE 128 -336 64 -336
WIRE 288 -336 192 -336
WIRE 464 -336 368 -336
WIRE 624 -336 464 -336
WIRE -192 -288 -192 -336
WIRE 64 -288 64 -336
WIRE 464 -288 464 -336
WIRE 624 -288 624 -336
WIRE 64 -176 64 -208
WIRE 464 -176 464 -224
WIRE 464 -176 64 -176
WIRE 624 -176 624 -208
WIRE 624 -176 464 -176
WIRE 128 -80 64 -80
WIRE 288 -80 192 -80
WIRE 464 -80 368 -80
WIRE 624 -80 464 -80
WIRE 64 -32 64 -80
WIRE 464 -32 464 -80
WIRE 624 -32 624 -80
WIRE 64 80 64 48
WIRE 464 80 464 32
WIRE 464 80 64 80
WIRE 624 80 624 48
WIRE 624 80 464 80
WIRE -848 208 -848 -336
WIRE -192 352 -192 -208
WIRE -240 368 -352 368
WIRE -352 432 -352 368
WIRE -240 480 -240 416
WIRE -848 608 -848 288
WIRE -352 608 -352 512
WIRE -192 608 -192 432
FLAG -192 608 0
FLAG -352 608 0
FLAG -848 608 0
FLAG 624 80 0
FLAG 464 -80 Vo1
FLAG -240 480 0
FLAG 624 -176 0
FLAG 464 -336 Vo2
SYMBOL voltage -848 192 R0
WINDOW 123 0 0 Left 0
WINDOW 39 0 0 Left 0
SYMATTR InstName Vd
SYMATTR Value 300
SYMBOL voltage -352 416 M0
WINDOW 123 0 0 Left 0
WINDOW 39 0 0 Left 0
SYMATTR InstName V2
SYMATTR Value PULSE(0 15 0 10n 10n {Ton} {Ts})
SYMBOL ind2 -208 -304 R0
SYMATTR InstName L1
SYMATTR Value 2.625m
SYMATTR Type ind
SYMBOL ind2 80 64 R180
WINDOW 0 36 80 Left 2
WINDOW 3 36 40 Left 2
SYMATTR InstName L3
SYMATTR Value 67.2µ
SYMATTR Type ind
SYMBOL sw -192 448 M180
SYMATTR InstName S1
SYMATTR Value MYSW
SYMBOL diode 128 -64 R270
WINDOW 0 32 32 VTop 2
WINDOW 3 0 32 VBottom 2
SYMATTR InstName D2
SYMBOL res 384 -96 R90
WINDOW 0 0 56 VBottom 2
WINDOW 3 32 56 VTop 2
SYMATTR InstName R2
SYMATTR Value 1m
SYMBOL cap 448 -32 R0
SYMATTR InstName C2
SYMATTR Value 50µ
SYMBOL res 608 -48 R0
SYMATTR InstName R3
SYMATTR Value 10
SYMBOL ind2 80 -192 R180
WINDOW 0 36 80 Left 2
WINDOW 3 36 40 Left 2
SYMATTR InstName L2
SYMATTR Value 604.8µ
SYMATTR Type ind
SYMBOL diode 128 -320 R270
WINDOW 0 32 32 VTop 2
WINDOW 3 0 32 VBottom 2
SYMATTR InstName D3
SYMBOL res 384 -352 R90
WINDOW 0 0 56 VBottom 2
WINDOW 3 32 56 VTop 2
SYMATTR InstName R4
SYMATTR Value 1m
SYMBOL cap 448 -288 R0
SYMATTR InstName C3
SYMATTR Value 50µ
SYMBOL res 608 -304 R0
SYMATTR InstName R5
SYMATTR Value 10
TEXT -104 -384 Left 2 !K1 L1 L2 L3 1
TEXT -152 544 Left 2 !.model MYSW SW(Ron=0.01 Roff=10Meg Vt=.5 Vh=.4 Lser=0 Vser=0)
TEXT -152 624 Left 2 !.tran 10m
TEXT -152 584 Left 2 !.param Fsw=75k Ts={1/Fsw} D=0.25 Ton={D*Ts}
