Version 4
SHEET 1 2728 2080
WIRE -880 -320 -1120 -320
WIRE -880 -272 -880 -320
WIRE -48 -240 -400 -240
WIRE -960 -192 -976 -192
WIRE -768 -192 -800 -192
WIRE -720 -192 -768 -192
WIRE -1120 -176 -1120 -320
WIRE 544 -176 400 -176
WIRE 688 -176 608 -176
WIRE 800 -176 688 -176
WIRE -768 -160 -768 -192
WIRE 688 -112 688 -176
WIRE 800 -112 800 -176
WIRE 400 -96 400 -176
WIRE -48 -80 -48 -240
WIRE -1120 -48 -1120 -96
WIRE -976 -48 -976 -192
WIRE -880 -48 -880 -112
WIRE -768 -48 -768 -96
WIRE -400 0 -400 -240
WIRE 144 48 80 48
WIRE 240 48 208 48
WIRE 400 48 400 -16
WIRE 688 48 688 -48
WIRE 688 48 400 48
WIRE 800 48 800 -32
WIRE 800 48 688 48
WIRE 688 80 688 48
WIRE -48 112 -48 0
WIRE 80 112 80 48
WIRE 80 112 -48 112
WIRE 544 128 400 128
WIRE 688 128 608 128
WIRE 800 128 688 128
WIRE 80 160 80 112
WIRE 144 160 80 160
WIRE 240 160 240 48
WIRE 240 160 224 160
WIRE -48 176 -48 112
WIRE 240 176 240 160
WIRE 688 192 688 128
WIRE 800 192 800 128
WIRE 400 208 400 128
WIRE -224 256 -272 256
WIRE -96 256 -144 256
WIRE 240 272 240 240
WIRE 400 352 400 288
WIRE 688 352 688 256
WIRE 688 352 400 352
WIRE 800 352 800 272
WIRE 800 352 688 352
WIRE -272 384 -272 256
WIRE 688 384 688 352
WIRE 1504 416 1376 416
WIRE 1664 416 1584 416
WIRE -400 432 -400 80
WIRE -48 432 -48 272
WIRE 1376 464 1376 416
WIRE 784 704 -256 704
WIRE 1376 704 1376 544
WIRE -752 752 -752 704
WIRE 112 848 32 848
WIRE 688 848 528 848
WIRE 784 848 784 704
WIRE 784 848 688 848
WIRE -384 912 -464 912
WIRE -256 912 -256 784
WIRE -256 912 -304 912
WIRE 112 912 -256 912
WIRE 640 912 528 912
WIRE 1520 944 1424 944
WIRE 1680 944 1584 944
WIRE 560 976 528 976
WIRE 640 976 640 912
WIRE 816 976 640 976
WIRE 912 976 896 976
WIRE 1424 1008 1424 944
WIRE 1472 1008 1424 1008
WIRE 1552 1008 1536 1008
WIRE 1680 1008 1680 944
WIRE 1680 1008 1632 1008
WIRE 640 1040 640 976
WIRE 640 1040 528 1040
WIRE 48 1104 -160 1104
WIRE 112 1104 48 1104
WIRE 656 1104 528 1104
WIRE 112 1168 -80 1168
WIRE 624 1168 528 1168
WIRE -160 1184 -160 1104
WIRE -80 1184 -80 1168
WIRE 48 1232 48 1104
WIRE 112 1232 48 1232
WIRE 848 1232 528 1232
WIRE 112 1296 64 1296
WIRE 624 1296 528 1296
WIRE -160 1344 -160 1248
WIRE -80 1344 -80 1264
WIRE 64 1392 64 1360
WIRE 848 1408 848 1232
FLAG -400 432 0
FLAG 800 -176 Vout1
FLAG 800 128 Vout2
FLAG 656 1104 0
FLAG -464 912 0
FLAG 1376 704 0
FLAG 1664 416 Vout2
FLAG 624 1168 Vcontrol
FLAG 848 1408 0
FLAG 64 1392 0
FLAG -80 1344 0
FLAG -160 1344 0
FLAG 912 976 0
FLAG 32 848 V_real
FLAG 1376 416 V_real
FLAG 1680 928 V_real
FLAG 640 1376 V_comp
FLAG 1408 928 V_comp
FLAG 240 272 0
FLAG -752 752 0
FLAG -272 384 Vcontrol
FLAG 704 1296 V_real
FLAG 1024 1088 0
FLAG 96 736 Vout2
FLAG 464 1408 Vout2
FLAG 688 848 Vref
FLAG -240 1344 Vref
FLAG 688 80 0
FLAG 688 384 0
FLAG 1424 1008 0
FLAG -48 432 0
FLAG -1120 -48 0
FLAG -880 -48 0
FLAG -720 -192 Vd
FLAG -976 -48 0
FLAG -768 -48 0
SYMBOL nmos -96 176 R0
SYMATTR InstName M1
SYMATTR Value IXTY08N100D2
SYMBOL diode 544 -160 R270
WINDOW 0 32 32 VTop 2
WINDOW 3 0 32 VBottom 2
SYMATTR InstName D1
SYMATTR Value MUR460
SYMBOL voltage -400 -16 R0
WINDOW 123 0 0 Left 0
WINDOW 39 0 0 Left 0
SYMATTR InstName V1
SYMATTR Value 300
SYMBOL res -128 240 R90
WINDOW 0 0 56 VBottom 2
WINDOW 3 32 56 VTop 2
SYMATTR InstName R8
SYMATTR Value 100
SYMBOL cap 672 -112 R0
WINDOW 0 32 3 Left 2
SYMATTR InstName C1
SYMATTR Value 47µ
SYMBOL res 784 -128 R0
SYMATTR InstName R1
SYMATTR Value 100
SYMBOL ind2 -64 16 M180
WINDOW 0 36 80 Left 2
WINDOW 3 36 40 Left 2
SYMATTR InstName L1
SYMATTR Value {L1}
SYMATTR Type ind
SYMBOL ind2 416 -112 M0
SYMATTR InstName L2
SYMATTR Value {L2}
SYMATTR Type ind
SYMBOL diode 544 144 R270
WINDOW 0 32 32 VTop 2
WINDOW 3 0 32 VBottom 2
SYMATTR InstName D2
SYMATTR Value MUR460
SYMBOL cap 672 192 R0
WINDOW 0 32 3 Left 2
SYMATTR InstName C2
SYMATTR Value 47µ
SYMBOL res 784 176 R0
SYMATTR InstName R2
SYMATTR Value 100
SYMBOL ind2 416 192 M0
SYMATTR InstName L3
SYMATTR Value {L3}
SYMATTR Type ind
SYMBOL res -272 688 R0
SYMATTR InstName R3
SYMATTR Value 8.2k
SYMBOL res -288 896 R90
WINDOW 0 0 56 VBottom 2
WINDOW 3 32 56 VTop 2
SYMATTR InstName R4
SYMATTR Value 1.5k
SYMBOL cap 48 1296 R0
SYMATTR InstName C3
SYMATTR Value 1µ
SYMBOL res -96 1168 R0
SYMATTR InstName R7
SYMATTR Value 2.7k
SYMBOL cap -176 1184 R0
SYMATTR InstName C4
SYMATTR Value 3.3n
SYMBOL SG3525A 256 944 R0
SYMATTR InstName U1
SYMATTR Value SG3525A
SYMBOL cap 1536 992 R90
WINDOW 0 0 32 VBottom 2
WINDOW 3 32 32 VTop 2
SYMATTR InstName C5
SYMATTR Value 10n
SYMBOL res 1648 992 R90
WINDOW 0 0 56 VBottom 2
WINDOW 3 32 56 VTop 2
SYMATTR InstName R9
SYMATTR Value 10k
SYMBOL cap 1584 928 R90
WINDOW 0 0 32 VBottom 2
WINDOW 3 -49 28 VTop 2
SYMATTR InstName C6
SYMATTR Value 2µ
SYMBOL voltage 800 976 R270
WINDOW 123 0 0 Left 0
WINDOW 39 0 0 Left 0
SYMATTR InstName V2
SYMATTR Value 16
SYMBOL res 1600 400 R90
WINDOW 0 0 56 VBottom 2
WINDOW 3 32 56 VTop 2
SYMATTR InstName R10
SYMATTR Value 47k
SYMBOL res 1392 560 R180
WINDOW 0 36 76 Left 2
WINDOW 3 36 40 Left 2
SYMATTR InstName R5
SYMATTR Value 1.8k
SYMBOL diode 144 64 R270
WINDOW 0 32 32 VTop 2
WINDOW 3 0 32 VBottom 2
SYMATTR InstName D3
SYMATTR Value MUR460
SYMBOL cap 224 176 R0
SYMATTR InstName C7
SYMATTR Value 120p
SYMBOL res 240 144 R90
WINDOW 0 0 56 VBottom 2
WINDOW 3 32 56 VTop 2
SYMATTR InstName R11
SYMATTR Value 6800
SYMBOL voltage -752 608 R0
WINDOW 0 24 96 Left 2
WINDOW 3 24 16 Left 2
WINDOW 123 0 0 Left 0
WINDOW 39 0 0 Left 0
SYMATTR InstName V3
SYMATTR Value PULSE(0 15 1u 1n 1n {(DT)*T} {T})
SYMBOL res 1040 1152 R90
WINDOW 0 0 56 VBottom 2
WINDOW 3 32 56 VTop 2
SYMATTR InstName R6
SYMATTR Value 1.8k
SYMBOL res 1008 1072 R0
SYMATTR InstName R12
SYMATTR Value 1k
SYMBOL res 720 1280 R90
WINDOW 0 0 56 VBottom 2
WINDOW 3 32 56 VTop 2
SYMATTR InstName R13
SYMATTR Value 10k
SYMBOL ZZZ\\bridgerectifier\\bridgerectifier -880 -192 R0
SYMATTR InstName U2
SYMBOL voltage -1120 -192 R0
WINDOW 3 -192 2 Left 2
WINDOW 123 0 0 Left 0
WINDOW 39 0 0 Left 0
SYMATTR Value SINE(0 220 50)
SYMATTR InstName V_ac
SYMBOL cap -784 -160 R0
SYMATTR InstName C_ripple
SYMATTR Value 47µ
TEXT -192 488 Left 2 ;Vo/Vd = (N2/N1) * D/(1-D) = (L2/L1)^(1/2) * D/(1-D)
TEXT 184 -216 Left 2 !K1 L1 L2 L3 1
TEXT -448 784 Left 2 ;Vref*5/39
TEXT 1056 -232 Left 2 !.tran 0 8m 0 startup
TEXT 664 -392 Left 2 !.inc SG3525A.sub
TEXT 1368 1080 Left 2 ;Compensacion de Polos y Ceros
TEXT 1368 1112 Left 2 ;Ts aproximadamente  1/(C5*30) *10^-6
TEXT -544 1080 Left 2 ;En teoria
TEXT -552 1128 Left 2 ;Fsw= 1/(CT*(RT*0.7))
TEXT -560 1200 Left 2 ;Con 5.1n y 1.3k = 215KHz
TEXT 1528 520 Left 2 ;Realimentador
TEXT 1424 688 Left 2 ;B = (R10+R5) /  (R10+R5+R6)
TEXT 104 -296 Left 2 ;Flyback
TEXT 1040 -376 Left 2 ;Directivas Spice
TEXT 1232 1384 Left 2 ;La frecuencia de salida [OUT-A] debería ser 215KHz
TEXT 1240 1312 Left 2 ;Problema:
TEXT 1240 1416 Left 2 ;Pero es 100KHz
TEXT 1232 1456 Left 2 ;Ademas si se baja el valor de capacidad baja la Vout maxima
TEXT 1400 88 Left 2 ;;.params DT = 0.55275
TEXT 1408 56 Left 2 !.param T = {1/75k}
TEXT 1400 120 Left 2 ;;.params DT = 0.5438447187
TEXT 1408 152 Left 2 !.params DT = 0.25
TEXT 992 64 Left 2 ;.params L1 = {75*75*4700n}
TEXT 992 96 Left 2 !.params L1 = {25*25*4200n}
TEXT 1408 216 Left 2 !.params L2 = {12*12*4200n}
TEXT 1408 248 Left 2 !.params L3 = {4*4*4200n}
LINE Normal 16 1376 16 1024 2
LINE Normal -608 1376 -32 1376 2
LINE Normal -608 1024 -608 1376 2
LINE Normal -32 1024 -608 1024 2
LINE Normal 1696 1040 1392 1040 2
LINE Normal 1744 880 1744 1040 2
LINE Normal 1440 880 1744 880 2
LINE Normal 1392 880 1440 880 2
LINE Normal 1744 1040 1696 1040 2
LINE Normal 1360 880 1392 880 2
LINE Normal 1360 1040 1360 880 2
LINE Normal 1392 1040 1360 1040 2
LINE Normal 16 1024 -32 1024 2
LINE Normal 16 1376 -32 1376 2
RECTANGLE Normal 1824 768 1264 336 2
RECTANGLE Normal 880 576 -592 -336 2
RECTANGLE Normal -128 976 -512 672 2
RECTANGLE Normal 1584 -112 1008 -416 2
RECTANGLE Normal 1984 1520 1184 1296 2
