Version 4
SHEET 1 2728 2080
WIRE -80 -240 -528 -240
WIRE 416 -176 272 -176
WIRE 560 -176 480 -176
WIRE 672 -176 560 -176
WIRE 560 -112 560 -176
WIRE 672 -112 672 -176
WIRE 272 -96 272 -176
WIRE -80 -80 -80 -240
WIRE -528 0 -528 -240
WIRE 272 48 272 -16
WIRE 560 48 560 -48
WIRE 560 48 272 48
WIRE 672 48 672 -32
WIRE 672 48 560 48
WIRE 560 80 560 48
WIRE 112 112 80 112
WIRE 416 128 272 128
WIRE 560 128 480 128
WIRE 672 128 560 128
WIRE -80 176 -80 0
WIRE 112 192 112 112
WIRE 112 192 96 192
WIRE 560 192 560 128
WIRE 672 192 672 128
WIRE 112 208 112 192
WIRE 272 208 272 128
WIRE -304 256 -304 128
WIRE -256 256 -304 256
WIRE -128 256 -176 256
WIRE 112 304 112 272
WIRE 272 352 272 288
WIRE 560 352 560 256
WIRE 560 352 272 352
WIRE 672 352 672 272
WIRE 672 352 560 352
WIRE -528 368 -528 80
WIRE -80 368 -80 272
WIRE -80 368 -528 368
WIRE 560 384 560 352
WIRE 1504 416 1376 416
WIRE 1664 416 1584 416
WIRE -528 432 -528 368
WIRE 1376 464 1376 416
WIRE 784 704 -256 704
WIRE 1376 704 1376 544
WIRE 112 848 32 848
WIRE 688 848 528 848
WIRE 784 848 784 704
WIRE 784 848 688 848
WIRE -384 912 -464 912
WIRE -256 912 -256 784
WIRE -256 912 -304 912
WIRE -96 912 -256 912
WIRE 112 912 -96 912
WIRE 640 912 528 912
WIRE 560 976 528 976
WIRE 640 976 640 912
WIRE 816 976 640 976
WIRE 912 976 896 976
WIRE 1504 1024 1424 1024
WIRE 1680 1024 1584 1024
WIRE 640 1040 640 976
WIRE 640 1040 528 1040
WIRE 48 1104 -160 1104
WIRE 112 1104 48 1104
WIRE 656 1104 528 1104
WIRE 112 1168 -80 1168
WIRE 624 1168 528 1168
WIRE -160 1184 -160 1104
WIRE -80 1184 -80 1168
WIRE 48 1232 48 1104
WIRE 112 1232 48 1232
WIRE 848 1232 528 1232
WIRE 112 1296 48 1296
WIRE 624 1296 528 1296
WIRE -160 1344 -160 1248
WIRE -80 1344 -80 1264
WIRE 48 1392 48 1360
WIRE 848 1408 848 1232
FLAG -528 432 0
FLAG 672 -176 Vout1
FLAG 672 128 Vout2
FLAG 656 1104 0
FLAG -464 912 0
FLAG 1376 704 0
FLAG 1664 416 Vout2
FLAG 624 1168 VSW
FLAG 848 1408 0
FLAG 48 1392 0
FLAG -80 1344 0
FLAG -160 1344 0
FLAG 912 976 0
FLAG 32 848 V_real
FLAG 1376 416 V_real
FLAG 560 80 0
FLAG 560 384 0
FLAG 624 1296 V_comp
FLAG 112 304 0
FLAG -304 128 VSW
FLAG 688 848 Vref
FLAG -96 912 PWM2
FLAG 1680 1024 V_real
FLAG 1424 1024 V_comp
SYMBOL nmos -128 176 R0
SYMATTR InstName M1
SYMATTR Value IRF530
SYMBOL diode 416 -160 R270
WINDOW 0 32 32 VTop 2
WINDOW 3 0 32 VBottom 2
SYMATTR InstName D1
SYMATTR Value MUR460
SYMBOL voltage -528 -16 R0
WINDOW 123 0 0 Left 0
WINDOW 39 0 0 Left 0
SYMATTR InstName V1
SYMATTR Value 300
SYMBOL res -160 240 R90
WINDOW 0 0 56 VBottom 2
WINDOW 3 32 56 VTop 2
SYMATTR InstName R8
SYMATTR Value 20
SYMBOL cap 544 -112 R0
WINDOW 0 32 3 Left 2
SYMATTR InstName C1
SYMATTR Value 47µ
SYMBOL res 656 -128 R0
SYMATTR InstName R1
SYMATTR Value 10
SYMBOL ind2 -96 16 M180
WINDOW 0 36 80 Left 2
WINDOW 3 36 40 Left 2
SYMATTR InstName L1
SYMATTR Value 2.625m
SYMATTR Type ind
SYMBOL ind2 288 -112 M0
SYMATTR InstName L2
SYMATTR Value 604.8µ
SYMATTR Type ind
SYMBOL diode 416 144 R270
WINDOW 0 32 32 VTop 2
WINDOW 3 0 32 VBottom 2
SYMATTR InstName D2
SYMATTR Value MUR460
SYMBOL cap 544 192 R0
WINDOW 0 32 3 Left 2
SYMATTR InstName C2
SYMATTR Value 47µ
SYMBOL res 656 176 R0
SYMATTR InstName R2
SYMATTR Value 10
SYMBOL ind2 288 192 M0
SYMATTR InstName L3
SYMATTR Value 67.2µ
SYMATTR Type ind
SYMBOL res -272 688 R0
SYMATTR InstName R3
SYMATTR Value 10k
SYMBOL res -288 896 R90
WINDOW 0 0 56 VBottom 2
WINDOW 3 32 56 VTop 2
SYMATTR InstName R4
SYMATTR Value 10k
SYMBOL cap 32 1296 R0
SYMATTR InstName C3
SYMATTR Value 1µ
SYMBOL res -96 1168 R0
SYMATTR InstName R7
SYMATTR Value 2.7k
SYMBOL cap -176 1184 R0
SYMATTR InstName C4
SYMATTR Value 3.3n
SYMBOL SG3525A 256 944 R0
SYMATTR InstName U1
SYMATTR Value SG3525A
SYMBOL voltage 800 976 R270
WINDOW 123 0 0 Left 0
WINDOW 39 0 0 Left 0
SYMATTR InstName V2
SYMATTR Value 16
SYMBOL res 1600 400 R90
WINDOW 0 0 56 VBottom 2
WINDOW 3 32 56 VTop 2
SYMATTR InstName R10
SYMATTR Value 5.4k
SYMBOL res 1392 560 R180
WINDOW 0 36 76 Left 2
WINDOW 3 36 40 Left 2
SYMATTR InstName R5
SYMATTR Value 1k
SYMBOL diode 16 128 R270
WINDOW 0 32 32 VTop 2
WINDOW 3 0 32 VBottom 2
SYMATTR InstName D3
SYMATTR Value MUR460
SYMBOL cap 96 208 R0
SYMATTR InstName C7
SYMATTR Value 24n
SYMBOL res 112 176 R90
WINDOW 0 0 56 VBottom 2
WINDOW 3 32 56 VTop 2
SYMATTR InstName R11
SYMATTR Value 46.3
SYMBOL res 1600 1008 R90
WINDOW 0 0 56 VBottom 2
WINDOW 3 32 56 VTop 2
SYMATTR InstName R12
SYMATTR Value 10k
TEXT -192 488 Left 2 ;Vo/Vd = (N2/N1) * D/(1-D) = (L2/L1)^(1/2) * D/(1-D)
TEXT 96 -176 Left 2 !K1 L1 L2 L3 1
TEXT 1056 -232 Left 2 !.tran 0 25m 0 startup
TEXT 112 800 Left 2 !.inc SG3525A.sub
TEXT -544 1080 Left 2 ;En teoria
TEXT -552 1128 Left 2 ;Fsw= 1/(CT*(RT*1.4))
TEXT 1528 520 Left 2 ;Realimentador
TEXT 1424 688 Left 2 ;B = (R10+R5) /  (R10+R5+R6)
TEXT 104 -296 Left 2 ;Flyback
TEXT 1040 -376 Left 2 ;Directivas Spice
TEXT 1232 1384 Left 2 ;La frecuencia de salida [OUT-A] debería ser 215KHz
TEXT 1240 1312 Left 2 ;Problema:
TEXT 1240 1416 Left 2 ;Pero es 100KHz
TEXT 1232 1456 Left 2 ;Ademas si se baja el valor de capacidad baja la Vout maxima
LINE Normal 0 1376 0 1024 2
LINE Normal -608 1376 -32 1376 2
LINE Normal -608 1024 -608 1376 2
LINE Normal -32 1024 -608 1024 2
LINE Normal 0 1024 -32 1024 2
LINE Normal 0 1376 -32 1376 2
RECTANGLE Normal 1824 768 1264 336 2
RECTANGLE Normal 880 576 -592 -336 2
RECTANGLE Normal -128 976 -512 672 2
RECTANGLE Normal 1584 -112 1008 -416 2
RECTANGLE Normal 1984 1520 1184 1296 2
