Version 4
SHEET 1 968 680
WIRE 384 -208 352 -208
WIRE 384 -192 384 -208
WIRE -544 -160 -656 -160
WIRE -64 -160 -128 -160
WIRE -544 -96 -784 -96
WIRE -48 -96 -128 -96
WIRE 64 -96 -48 -96
WIRE 384 -96 384 -112
WIRE -784 -80 -784 -96
WIRE 64 -64 64 -96
WIRE 384 -48 352 -48
WIRE 576 -48 544 -48
WIRE 384 -32 384 -48
WIRE 576 -16 576 -48
WIRE -784 16 -784 0
WIRE -544 32 -656 32
WIRE -48 32 -48 -96
WIRE -48 32 -128 32
WIRE 64 48 64 16
WIRE 384 80 384 48
WIRE 448 80 384 80
WIRE 576 80 576 64
WIRE 640 80 576 80
WIRE -592 96 -656 96
WIRE -544 96 -592 96
WIRE -64 96 -128 96
WIRE 384 96 384 80
WIRE 576 96 576 80
WIRE -544 160 -656 160
WIRE -64 160 -128 160
WIRE 384 208 384 176
WIRE 576 208 576 176
WIRE -592 224 -592 96
WIRE -544 224 -592 224
WIRE 48 224 -128 224
WIRE 384 272 352 272
WIRE 496 272 464 272
WIRE 608 272 576 272
WIRE 752 272 736 272
WIRE 784 272 752 272
WIRE 896 272 864 272
WIRE 912 272 896 272
WIRE -544 288 -656 288
WIRE -64 288 -128 288
WIRE 384 304 384 272
WIRE 496 320 496 272
WIRE 608 320 608 272
WIRE 752 368 752 272
WIRE 896 368 896 272
WIRE 896 368 752 368
WIRE 48 400 48 224
WIRE 384 416 384 384
WIRE 496 416 496 384
WIRE 608 416 608 384
WIRE 816 496 816 464
FLAG -64 96 0
FLAG -64 160 VGG
FLAG 48 400 0
FLAG 64 48 0
FLAG -656 32 vosc
FLAG 384 -96 0
FLAG 352 -208 v75k
FLAG 384 208 0
FLAG 352 -48 Vo1
FLAG 464 80 Vfb
FLAG 576 208 0
FLAG 544 -48 Vref
FLAG -64 -160 Vref
FLAG 656 80 Vcmp
FLAG -64 288 Vcom
FLAG 736 272 Vcom
FLAG 912 272 Vfb
FLAG 384 416 0
FLAG 352 272 rt
FLAG 464 272 ct
FLAG 496 416 0
FLAG -656 96 ct
FLAG -656 160 rt
FLAG 576 272 cst
FLAG 608 416 0
FLAG -656 288 cst
FLAG -784 16 0
FLAG -656 -160 Vfb
FLAG 816 496 0
SYMBOL SG3525A -400 -64 R0
SYMATTR InstName U1
SYMATTR Value SG3525A
SYMBOL voltage 64 -80 R0
WINDOW 123 0 0 Left 0
WINDOW 39 0 0 Left 0
SYMATTR InstName V1
SYMATTR Value 16
SYMBOL res 880 224 R90
WINDOW 0 0 56 VBottom 2
WINDOW 3 32 56 VTop 2
SYMATTR InstName R1
SYMATTR Value 47k
SYMBOL voltage 384 -208 R0
WINDOW 123 0 0 Left 0
WINDOW 39 0 0 Left 0
SYMATTR InstName Vtest1
SYMATTR Value PULSE(0 15 0 1n 1n {1/150k} {1/75k})
SYMBOL res 368 -48 R0
SYMATTR InstName R2
SYMATTR Value .617k
SYMBOL res 368 80 R0
SYMATTR InstName R3
SYMATTR Value .1k
SYMBOL res 560 -32 R0
SYMATTR InstName R4
SYMATTR Value 12k
SYMBOL res 560 80 R0
SYMATTR InstName R5
SYMATTR Value 10k
SYMBOL res 368 288 R0
SYMATTR InstName RT1
SYMATTR Value 2.7k
SYMBOL cap 480 320 R0
SYMATTR InstName CT1
SYMATTR Value 3.3n
SYMBOL cap 592 320 R0
SYMATTR InstName Cst1
SYMATTR Value 10µ
SYMBOL voltage -784 -96 R0
WINDOW 123 0 0 Left 0
WINDOW 39 0 0 Left 0
SYMATTR InstName V2
SYMATTR Value {67/30}
SYMBOL cap 800 400 R0
SYMATTR InstName C1
SYMATTR Value 100n
TEXT 408 488 Left 2 !.tran 0 200u 0
TEXT -536 -216 Left 2 !.inc SG3525A.sub
TEXT -632 568 Left 2 ;this configuration sets the DC with V(2)
