Version 4
SHEET 1 1252 936
WIRE -240 -176 -416 -176
WIRE -416 -160 -416 -176
WIRE -416 -64 -416 -80
WIRE -176 16 -416 16
WIRE -416 32 -416 16
WIRE -64 48 -128 48
WIRE -176 112 -176 16
WIRE -64 112 -176 112
WIRE 608 112 352 112
WIRE 768 112 608 112
WIRE -416 128 -416 112
WIRE -128 128 -128 48
WIRE -128 128 -416 128
WIRE 768 208 768 192
WIRE -64 240 -112 240
WIRE 608 240 608 112
WIRE 608 240 352 240
WIRE -64 304 -160 304
WIRE 480 304 352 304
WIRE -64 368 -432 368
WIRE 736 368 352 368
WIRE 768 368 736 368
WIRE -432 384 -432 368
WIRE 736 416 736 368
WIRE -160 432 -160 304
WIRE -160 432 -336 432
WIRE -64 432 -160 432
WIRE 672 432 352 432
WIRE -336 448 -336 432
WIRE -64 496 -112 496
WIRE 448 496 352 496
WIRE -432 544 -432 464
WIRE -336 544 -336 512
WIRE 736 544 736 496
WIRE -112 592 -112 560
WIRE 448 592 448 496
WIRE 448 592 368 592
WIRE 672 608 672 432
WIRE 368 720 368 592
WIRE 448 720 368 720
WIRE 624 720 624 656
WIRE 624 720 528 720
FLAG 480 304 0
FLAG 768 368 Vcontrol
FLAG 672 608 0
FLAG -112 592 0
FLAG -432 544 0
FLAG -336 544 0
FLAG 768 208 0
FLAG 624 656 V_real
FLAG 736 544 0
FLAG -112 240 vosc
FLAG -416 -64 0
FLAG -240 -176 v75k
SYMBOL cap -128 496 R0
SYMATTR InstName C1
SYMATTR Value 10µ
SYMBOL res -448 368 R0
SYMATTR InstName R1
SYMATTR Value 2.7k
SYMBOL cap -352 448 R0
SYMATTR InstName C2
SYMATTR Value 3.3n
SYMBOL SG3525A 80 144 R0
SYMATTR InstName U1
SYMATTR Value SG3525A
SYMBOL voltage 768 96 R0
WINDOW 123 0 0 Left 0
WINDOW 39 0 0 Left 0
SYMATTR InstName V1
SYMATTR Value 16
SYMBOL res 544 704 R90
WINDOW 0 0 56 VBottom 2
WINDOW 3 32 56 VTop 2
SYMATTR InstName R2
SYMATTR Value 470k
SYMBOL res 720 400 R0
SYMATTR InstName R7
SYMATTR Value 10k
SYMBOL voltage -416 16 R0
WINDOW 123 0 0 Left 0
WINDOW 39 0 0 Left 0
SYMATTR InstName V2
SYMATTR Value PULSE(0 6 0 1n 1n .2m .5m)
SYMBOL voltage -416 -176 R0
WINDOW 123 0 0 Left 0
WINDOW 39 0 0 Left 0
SYMATTR InstName V3
SYMATTR Value PULSE(0 15 0 1n 1n {1/160k} {1/80k})
TEXT -56 -424 Left 2 ;Vo/Vd = (N2/N1) * D/(1-D) = (L2/L1)^(1/2) * D/(1-D)
TEXT -520 632 Left 2 !.tran 0 .5m 0 startup
TEXT 64 -304 Left 2 !.inc SG3525A.sub
TEXT 760 624 Left 2 ;Con el C5 controlas el settling time
TEXT 768 664 Left 2 ;Ts= 1/(C5*30) *10^-6
TEXT 768 704 Left 2 ;El otro RC es un ajuste fino de ese tiempo
LINE Normal -208 576 -208 224 2
LINE Normal -784 576 -208 576 2
LINE Normal -784 224 -784 576 2
LINE Normal -208 224 -784 224 2
LINE Normal 336 688 336 592 2
LINE Normal 336 752 336 688 2
LINE Normal 640 752 336 752 2
LINE Normal 640 592 640 752 2
LINE Normal 336 592 640 592 2
