Version 4
SHEET 1 1704 936
WIRE -16 -1312 -416 -1312
WIRE 304 -1312 240 -1312
WIRE 464 -1312 368 -1312
WIRE 640 -1312 544 -1312
WIRE 800 -1312 640 -1312
WIRE -16 -1264 -16 -1312
WIRE 240 -1264 240 -1312
WIRE 640 -1264 640 -1312
WIRE 800 -1264 800 -1312
WIRE 240 -1152 240 -1184
WIRE 640 -1152 640 -1200
WIRE 640 -1152 240 -1152
WIRE 800 -1152 800 -1184
WIRE 800 -1152 640 -1152
WIRE 640 -1120 640 -1152
WIRE 304 -1056 240 -1056
WIRE 464 -1056 368 -1056
WIRE 640 -1056 544 -1056
WIRE 800 -1056 640 -1056
WIRE -416 -1040 -416 -1312
WIRE 240 -1008 240 -1056
WIRE 640 -1008 640 -1056
WIRE 800 -1008 800 -1056
WIRE 240 -896 240 -928
WIRE 640 -896 640 -944
WIRE 640 -896 240 -896
WIRE 800 -896 800 -928
WIRE 800 -896 640 -896
WIRE 640 -864 640 -896
WIRE -16 -768 -16 -1184
WIRE -64 -752 -176 -752
WIRE -416 -640 -416 -960
WIRE -64 -640 -64 -704
WIRE -16 -640 -16 -688
WIRE -48 -496 -160 -496
WIRE 432 -496 368 -496
WIRE -48 -432 -160 -432
WIRE 448 -432 368 -432
WIRE 560 -432 448 -432
WIRE 560 -400 560 -432
WIRE 880 -384 848 -384
WIRE 1072 -384 1040 -384
WIRE 880 -368 880 -384
WIRE 1072 -352 1072 -384
WIRE -48 -304 -160 -304
WIRE 448 -304 448 -432
WIRE 448 -304 368 -304
WIRE 560 -288 560 -320
WIRE 880 -256 880 -288
WIRE 944 -256 880 -256
WIRE 1072 -256 1072 -272
WIRE 1136 -256 1072 -256
WIRE -96 -240 -160 -240
WIRE -48 -240 -96 -240
WIRE 432 -240 368 -240
WIRE 880 -240 880 -256
WIRE 1072 -240 1072 -256
WIRE -48 -176 -160 -176
WIRE 432 -176 368 -176
WIRE 880 -128 880 -160
WIRE 1072 -128 1072 -160
WIRE -96 -112 -96 -240
WIRE -48 -112 -96 -112
WIRE 544 -112 368 -112
WIRE 880 -64 848 -64
WIRE 992 -64 960 -64
WIRE 1104 -64 1072 -64
WIRE 1280 -64 1232 -64
WIRE 1408 -64 1360 -64
WIRE -48 -48 -160 -48
WIRE 432 -48 368 -48
WIRE 880 -32 880 -64
WIRE 992 -16 992 -64
WIRE 1104 -16 1104 -64
WIRE 544 64 544 -112
WIRE 880 80 880 48
WIRE 992 80 992 48
WIRE 1104 80 1104 48
FLAG 432 -240 0
FLAG 432 -176 VGG
FLAG 544 64 0
FLAG 560 -288 0
FLAG -160 -304 vosc
FLAG -16 -640 0
FLAG -416 -640 0
FLAG 640 -1056 Vo1
FLAG -64 -640 0
FLAG 640 -1312 Vo2
FLAG 640 -1120 0
FLAG 640 -864 0
FLAG -176 -752 VGG
FLAG 880 -128 0
FLAG 848 -384 Vo1
FLAG 944 -256 Vfb
FLAG 1072 -128 0
FLAG 1040 -384 Vref
FLAG 432 -496 Vref
FLAG 1136 -256 Vcmp
FLAG 432 -48 Vcom
FLAG 1232 -64 Vcom
FLAG 1408 -64 Vfb
FLAG 880 80 0
FLAG 848 -64 rt
FLAG 960 -64 ct
FLAG 992 80 0
FLAG -160 -240 ct
FLAG -160 -176 rt
FLAG 1072 -64 cst
FLAG 1104 80 0
FLAG -160 -48 cst
FLAG -160 -496 Vfb
FLAG -160 -432 Vcmp
SYMBOL SG3525A 96 -400 R0
SYMATTR InstName U1
SYMATTR Value SG3525A
SYMBOL voltage 560 -416 R0
WINDOW 123 0 0 Left 0
WINDOW 39 0 0 Left 0
SYMATTR InstName V1
SYMATTR Value 16
SYMBOL res 1376 -80 R90
WINDOW 0 0 56 VBottom 2
WINDOW 3 32 56 VTop 2
SYMATTR InstName R2
SYMATTR Value 47k
SYMBOL voltage -416 -1056 R0
WINDOW 123 0 0 Left 0
WINDOW 39 0 0 Left 0
SYMATTR InstName Vd
SYMATTR Value 300
SYMBOL ind2 -32 -1280 R0
SYMATTR InstName L1
SYMATTR Value {L1}
SYMATTR Type ind
SYMBOL ind2 256 -912 R180
WINDOW 0 36 80 Left 2
WINDOW 3 36 40 Left 2
SYMATTR InstName L2
SYMATTR Value {L22}
SYMATTR Type ind
SYMBOL sw -16 -672 M180
SYMATTR InstName S1
SYMATTR Value MYSW
SYMBOL diode 304 -1040 R270
WINDOW 0 32 32 VTop 2
WINDOW 3 0 32 VBottom 2
SYMATTR InstName D1
SYMBOL res 560 -1072 R90
WINDOW 0 0 56 VBottom 2
WINDOW 3 32 56 VTop 2
SYMATTR InstName R3
SYMATTR Value 1m
SYMBOL cap 624 -1008 R0
SYMATTR InstName C3
SYMATTR Value 47µ
SYMBOL res 784 -1024 R0
SYMATTR InstName R4
SYMATTR Value 47
SYMBOL ind2 256 -1168 R180
WINDOW 0 36 80 Left 2
WINDOW 3 36 40 Left 2
SYMATTR InstName L3
SYMATTR Value {L21}
SYMATTR Type ind
SYMBOL diode 304 -1296 R270
WINDOW 0 32 32 VTop 2
WINDOW 3 0 32 VBottom 2
SYMATTR InstName D2
SYMBOL res 560 -1328 R90
WINDOW 0 0 56 VBottom 2
WINDOW 3 32 56 VTop 2
SYMATTR InstName R5
SYMATTR Value 1m
SYMBOL cap 624 -1264 R0
SYMATTR InstName C4
SYMATTR Value 47µ
SYMBOL res 784 -1280 R0
SYMATTR InstName R6
SYMATTR Value 47
SYMBOL res 864 -384 R0
SYMATTR InstName R8
SYMATTR Value 15k
SYMBOL res 864 -256 R0
SYMATTR InstName R9
SYMATTR Value 1.2k
SYMBOL res 1056 -368 R0
SYMATTR InstName R10
SYMATTR Value 1.8k
SYMBOL res 1056 -256 R0
SYMATTR InstName R11
SYMATTR Value 1k
SYMBOL res 864 -48 R0
SYMATTR InstName RT
SYMATTR Value 3.9k
SYMBOL cap 976 -16 R0
SYMATTR InstName CT
SYMATTR Value 2.2n
SYMBOL cap 1088 -16 R0
SYMATTR InstName Cst
SYMATTR Value 5µ
TEXT 904 152 Left 2 !.tran 0 5m 0 startup
TEXT -40 -552 Left 2 !.inc SG3525A.sub
TEXT 32 -1352 Left 2 !K1 L1 L2 L3 1
TEXT 880 -1304 Left 2 !.model MYSW SW(Ron=0.01 Roff=10Meg Vt=.5 Vh=.4 Lser=0 Vser=0)
TEXT 880 -1264 Left 2 !.param Fsw=75k Ts={1/Fsw} D=0.25 Ton={D*Ts}
TEXT 880 -1224 Left 2 !.param AL=4700n N1=25 N21=12 N22=4
TEXT 880 -1184 Left 2 !.param L1={AL*N1*N1} L21={AL*N21*N21} L22={AL*N22*N22}
