Version 4
SHEET 1 1704 936
WIRE -16 -1312 -416 -1312
WIRE 304 -1312 240 -1312
WIRE 464 -1312 368 -1312
WIRE 640 -1312 544 -1312
WIRE 800 -1312 640 -1312
WIRE -16 -1264 -16 -1312
WIRE 240 -1264 240 -1312
WIRE 640 -1264 640 -1312
WIRE 800 -1264 800 -1312
WIRE 240 -1152 240 -1184
WIRE 640 -1152 640 -1200
WIRE 640 -1152 240 -1152
WIRE 800 -1152 800 -1184
WIRE 800 -1152 640 -1152
WIRE 640 -1120 640 -1152
WIRE 304 -1056 240 -1056
WIRE 464 -1056 368 -1056
WIRE 640 -1056 544 -1056
WIRE 800 -1056 640 -1056
WIRE -416 -1040 -416 -1312
WIRE 240 -1008 240 -1056
WIRE 640 -1008 640 -1056
WIRE 800 -1008 800 -1056
WIRE 240 -896 240 -928
WIRE 640 -896 640 -944
WIRE 640 -896 240 -896
WIRE 800 -896 800 -928
WIRE 800 -896 640 -896
WIRE 640 -864 640 -896
WIRE -16 -768 -16 -1184
WIRE -64 -752 -176 -752
WIRE -416 -640 -416 -960
WIRE -64 -640 -64 -704
WIRE -16 -640 -16 -688
WIRE -240 -400 -352 -400
WIRE 240 -400 176 -400
WIRE 528 -400 496 -400
WIRE 720 -400 688 -400
WIRE 528 -384 528 -400
WIRE 720 -368 720 -400
WIRE -240 -336 -352 -336
WIRE 256 -336 176 -336
WIRE 368 -336 256 -336
WIRE 368 -304 368 -336
WIRE 528 -272 528 -304
WIRE 592 -272 528 -272
WIRE 720 -272 720 -288
WIRE 784 -272 720 -272
WIRE 528 -256 528 -272
WIRE 720 -256 720 -272
WIRE -240 -208 -352 -208
WIRE 256 -208 256 -336
WIRE 256 -208 176 -208
WIRE 368 -192 368 -224
WIRE -288 -144 -352 -144
WIRE -240 -144 -288 -144
WIRE 240 -144 176 -144
WIRE 528 -144 528 -176
WIRE 720 -144 720 -176
WIRE -240 -80 -352 -80
WIRE 240 -80 176 -80
WIRE 528 -80 496 -80
WIRE 640 -80 608 -80
WIRE 752 -80 720 -80
WIRE 928 -80 880 -80
WIRE 1056 -80 1008 -80
WIRE 528 -48 528 -80
WIRE 640 -32 640 -80
WIRE 752 -32 752 -80
WIRE -288 -16 -288 -144
WIRE -240 -16 -288 -16
WIRE 352 -16 176 -16
WIRE -240 48 -352 48
WIRE 240 48 176 48
WIRE 528 64 528 32
WIRE 640 64 640 32
WIRE 752 64 752 32
WIRE 352 160 352 -16
FLAG 240 -144 0
FLAG 240 -80 VGG
FLAG 352 160 0
FLAG 368 -192 0
FLAG -352 -208 vosc
FLAG -16 -640 0
FLAG -416 -640 0
FLAG 640 -1056 Vo1
FLAG -64 -640 0
FLAG 640 -1312 Vo2
FLAG 640 -1120 0
FLAG 640 -864 0
FLAG -176 -752 VGG
FLAG 528 -144 0
FLAG 496 -400 Vo1
FLAG 592 -272 Vfb
FLAG 720 -144 0
FLAG 688 -400 Vref
FLAG 240 -400 Vref
FLAG 784 -272 Vcmp
FLAG 240 48 Vcom
FLAG 880 -80 Vcom
FLAG 1056 -80 Vfb
FLAG 528 64 0
FLAG 496 -80 rt
FLAG 608 -80 ct
FLAG 640 64 0
FLAG -352 -144 ct
FLAG -352 -80 rt
FLAG 720 -80 cst
FLAG 752 64 0
FLAG -352 48 cst
FLAG -352 -400 Vfb
FLAG -352 -336 Vcmp
SYMBOL SG3525A -96 -304 R0
SYMATTR InstName U1
SYMATTR Value SG3525A
SYMBOL voltage 368 -320 R0
WINDOW 123 0 0 Left 0
WINDOW 39 0 0 Left 0
SYMATTR InstName V1
SYMATTR Value 16
SYMBOL res 1024 -96 R90
WINDOW 0 0 56 VBottom 2
WINDOW 3 32 56 VTop 2
SYMATTR InstName R2
SYMATTR Value 47k
SYMBOL voltage -416 -1056 R0
WINDOW 123 0 0 Left 0
WINDOW 39 0 0 Left 0
SYMATTR InstName Vd
SYMATTR Value 300
SYMBOL ind2 -32 -1280 R0
SYMATTR InstName L1
SYMATTR Value {L1}
SYMATTR Type ind
SYMBOL ind2 256 -912 R180
WINDOW 0 36 80 Left 2
WINDOW 3 36 40 Left 2
SYMATTR InstName L2
SYMATTR Value {L22}
SYMATTR Type ind
SYMBOL sw -16 -672 M180
SYMATTR InstName S1
SYMATTR Value MYSW
SYMBOL diode 304 -1040 R270
WINDOW 0 32 32 VTop 2
WINDOW 3 0 32 VBottom 2
SYMATTR InstName D1
SYMBOL res 560 -1072 R90
WINDOW 0 0 56 VBottom 2
WINDOW 3 32 56 VTop 2
SYMATTR InstName R3
SYMATTR Value 1m
SYMBOL cap 624 -1008 R0
SYMATTR InstName C3
SYMATTR Value 47µ
SYMBOL res 784 -1024 R0
SYMATTR InstName R4
SYMATTR Value 47
SYMBOL ind2 256 -1168 R180
WINDOW 0 36 80 Left 2
WINDOW 3 36 40 Left 2
SYMATTR InstName L3
SYMATTR Value {L21}
SYMATTR Type ind
SYMBOL diode 304 -1296 R270
WINDOW 0 32 32 VTop 2
WINDOW 3 0 32 VBottom 2
SYMATTR InstName D2
SYMBOL res 560 -1328 R90
WINDOW 0 0 56 VBottom 2
WINDOW 3 32 56 VTop 2
SYMATTR InstName R5
SYMATTR Value 1m
SYMBOL cap 624 -1264 R0
SYMATTR InstName C4
SYMATTR Value 47µ
SYMBOL res 784 -1280 R0
SYMATTR InstName R6
SYMATTR Value 47
SYMBOL res 512 -400 R0
SYMATTR InstName R8
SYMATTR Value 10k
SYMBOL res 512 -272 R0
SYMATTR InstName R9
SYMATTR Value 1.2k
SYMBOL res 704 -384 R0
SYMATTR InstName R10
SYMATTR Value 2.2k
SYMBOL res 704 -272 R0
SYMATTR InstName R11
SYMATTR Value 1k
SYMBOL res 512 -64 R0
SYMATTR InstName RT
SYMATTR Value 3.9k
SYMBOL cap 624 -32 R0
SYMATTR InstName CT
SYMATTR Value 2.2n
SYMBOL cap 736 -32 R0
SYMATTR InstName Cst
SYMATTR Value 5µ
TEXT 488 168 Left 2 !.tran 0 5m 0 startup
TEXT -232 -456 Left 2 !.inc SG3525A.sub
TEXT 32 -1352 Left 2 !K1 L1 L2 L3 1
TEXT 144 -768 Left 2 !.model MYSW SW(Ron=0.01 Roff=10Meg Vt=.5 Vh=.4 Lser=0 Vser=0)
TEXT 144 -736 Left 2 !.param Fsw=75k Ts={1/Fsw} D=0.25 Ton={D*Ts}
TEXT 144 -696 Left 2 !.param AL=4700n N1=25 N21=12 N22=4
TEXT 144 -656 Left 2 !.param L1={AL*N1*N1} L21={AL*N21*N21} L22={AL*N22*N22}
