Version 4
SHEET 1 1252 804
WIRE -592 -352 -848 -352
WIRE -464 -352 -512 -352
WIRE -320 -352 -464 -352
WIRE -848 -304 -848 -352
WIRE -464 -304 -464 -352
WIRE -464 -160 -464 -224
WIRE -128 -144 -144 -144
WIRE -320 -80 -320 -352
WIRE -144 -80 -144 -144
WIRE -144 -80 -320 -80
WIRE -144 48 -144 -80
WIRE -64 48 -144 48
WIRE -64 112 -224 112
WIRE 608 112 352 112
WIRE 768 112 608 112
WIRE 768 208 768 192
WIRE 608 240 608 112
WIRE 608 240 352 240
WIRE 480 304 352 304
WIRE -64 368 -256 368
WIRE 752 368 352 368
WIRE 768 368 752 368
WIRE -256 384 -256 368
WIRE -64 432 -336 432
WIRE 672 432 352 432
WIRE -336 448 -336 432
WIRE -64 496 -112 496
WIRE 448 496 352 496
WIRE -336 544 -336 512
WIRE -256 544 -256 464
WIRE -112 592 -112 560
WIRE 448 592 448 496
WIRE 448 592 368 592
WIRE 672 608 672 432
WIRE 368 656 368 592
WIRE 464 656 368 656
WIRE 624 656 528 656
WIRE 368 720 368 656
WIRE 448 720 368 720
WIRE 624 720 624 656
WIRE 624 720 528 720
FLAG 480 304 0
FLAG 768 368 Vcontrol
FLAG 672 608 0
FLAG -112 592 0
FLAG -256 544 0
FLAG -336 544 0
FLAG 768 208 0
FLAG 624 656 V_real
FLAG 368 784 0
FLAG 752 448 0
FLAG -224 192 0
FLAG -128 -144 V_real
FLAG -848 -224 0
FLAG -464 -160 0
SYMBOL cap -128 496 R0
SYMATTR InstName C1
SYMATTR Value 1µ
SYMBOL res -272 368 R0
SYMATTR InstName R1
SYMATTR Value 2.7k
SYMBOL cap -352 448 R0
SYMATTR InstName C2
SYMATTR Value 3.3n
SYMBOL SG3525A 80 144 R0
SYMATTR InstName U1
SYMATTR Value SG3525A
SYMBOL cap 528 640 R90
WINDOW 0 0 32 VBottom 2
WINDOW 3 32 32 VTop 2
SYMATTR InstName C3
SYMATTR Value 68n
SYMBOL voltage 768 96 R0
WINDOW 123 0 0 Left 0
WINDOW 39 0 0 Left 0
SYMATTR InstName V1
SYMATTR Value 16
SYMBOL voltage -224 96 R0
WINDOW 123 0 0 Left 0
WINDOW 39 0 0 Left 0
SYMATTR InstName V2
SYMATTR Value 2.5
SYMBOL cap 352 720 R0
SYMATTR InstName C4
SYMATTR Value 10n
SYMBOL res 544 704 R90
WINDOW 0 0 56 VBottom 2
WINDOW 3 32 56 VTop 2
SYMATTR InstName R2
SYMATTR Value 470k
SYMBOL res 736 352 R0
SYMATTR InstName R3
SYMATTR Value 10k
SYMBOL voltage -848 -320 R0
WINDOW 123 0 0 Left 0
WINDOW 39 0 0 Left 0
SYMATTR InstName V3
SYMATTR Value 5.1V
SYMBOL res -496 -368 R90
WINDOW 0 0 56 VBottom 2
WINDOW 3 32 56 VTop 2
SYMATTR InstName R4
SYMATTR Value 60k
SYMBOL res -448 -208 R180
WINDOW 0 36 76 Left 2
WINDOW 3 36 40 Left 2
SYMATTR InstName R5
SYMATTR Value 40k
TEXT -56 -424 Left 2 ;Vo/Vd = (N2/N1) * D/(1-D) = (L2/L1)^(1/2) * D/(1-D)
TEXT -1120 -48 Left 2 !.param fs=200K
TEXT -1120 -24 Left 2 !;.param D=0.5
TEXT -1256 120 Left 2 ;.step param R 40k 80k 20k
TEXT -256 88 Left 2 ;Vref/2
TEXT -520 632 Left 2 !.tran 0 20m 0 startup
TEXT 64 -304 Left 2 !.inc SG3525A.sub
TEXT -744 416 Left 2 ;Con este 1/(RC) * 0.6 controlas
TEXT -744 440 Left 2 ;la frecuencia de conmutacion
TEXT 760 624 Left 2 ;Con el C5 controlas el settling time
TEXT 768 664 Left 2 ;Ts= 1/(C5*30) *10^-6
TEXT 768 704 Left 2 ;El otro RC es un ajuste fino de ese tiempo
LINE Normal -208 576 -208 224 2
LINE Normal -784 576 -208 576 2
LINE Normal -784 224 -784 576 2
LINE Normal -208 224 -784 224 2
LINE Normal 336 688 336 592 2
LINE Normal 336 752 336 688 2
LINE Normal 640 752 336 752 2
LINE Normal 640 592 640 752 2
LINE Normal 336 592 640 592 2
