Version 4
SHEET 1 2536 856
WIRE 1808 -352 1776 -352
WIRE 2000 -352 1968 -352
WIRE -448 -336 -640 -336
WIRE -320 -336 -368 -336
WIRE 128 -336 64 -336
WIRE 288 -336 192 -336
WIRE 464 -336 368 -336
WIRE 544 -336 464 -336
WIRE 624 -336 544 -336
WIRE 1024 -336 912 -336
WIRE 1504 -336 1440 -336
WIRE 1808 -336 1808 -352
WIRE 2000 -320 2000 -352
WIRE -640 -288 -640 -336
WIRE -320 -288 -320 -336
WIRE 64 -288 64 -336
WIRE 464 -288 464 -336
WIRE 624 -288 624 -336
WIRE 1024 -272 912 -272
WIRE 1520 -272 1440 -272
WIRE 1632 -272 1520 -272
WIRE 1632 -240 1632 -272
WIRE 1808 -224 1808 -256
WIRE 1872 -224 1808 -224
WIRE 2000 -224 2000 -240
WIRE 2064 -224 2000 -224
WIRE 1808 -208 1808 -224
WIRE 2000 -208 2000 -224
WIRE -320 -176 -320 -208
WIRE 64 -176 64 -208
WIRE 464 -176 464 -224
WIRE 464 -176 64 -176
WIRE 624 -176 624 -208
WIRE 624 -176 464 -176
WIRE -640 -160 -640 -208
WIRE 464 -144 464 -176
WIRE 1024 -144 912 -144
WIRE 1520 -144 1520 -272
WIRE 1520 -144 1440 -144
WIRE 1632 -128 1632 -160
WIRE 1808 -96 1808 -128
WIRE 2000 -96 2000 -128
WIRE 128 -80 64 -80
WIRE 288 -80 192 -80
WIRE 464 -80 368 -80
WIRE 544 -80 464 -80
WIRE 624 -80 544 -80
WIRE 976 -80 912 -80
WIRE 1024 -80 976 -80
WIRE 1504 -80 1440 -80
WIRE 64 -32 64 -80
WIRE 464 -32 464 -80
WIRE 624 -32 624 -80
WIRE 1808 -32 1776 -32
WIRE 1920 -32 1888 -32
WIRE 2032 -32 2000 -32
WIRE 2208 -32 2160 -32
WIRE 2336 -32 2288 -32
WIRE 1024 -16 912 -16
WIRE 1504 -16 1440 -16
WIRE -320 0 -320 -96
WIRE -208 0 -320 0
WIRE -192 0 -208 0
WIRE -80 0 -112 0
WIRE 1808 0 1808 -32
WIRE -320 16 -320 0
WIRE 1920 16 1920 -32
WIRE 2032 16 2032 -32
WIRE 976 48 976 -80
WIRE 1024 48 976 48
WIRE 1616 48 1440 48
WIRE 64 80 64 48
WIRE 464 80 464 32
WIRE 464 80 64 80
WIRE 624 80 624 48
WIRE 624 80 464 80
WIRE -496 96 -528 96
WIRE -368 96 -416 96
WIRE -208 96 -208 0
WIRE -192 96 -208 96
WIRE -80 96 -80 0
WIRE -80 96 -128 96
WIRE -80 112 -80 96
WIRE 464 112 464 80
WIRE 1024 112 912 112
WIRE 1504 112 1440 112
WIRE 1808 112 1808 80
WIRE 1920 112 1920 80
WIRE 2032 112 2032 80
WIRE -80 224 -80 176
WIRE 1616 224 1616 48
WIRE -320 336 -320 112
FLAG -320 336 0
FLAG -640 -160 0
FLAG 544 -336 Vo1
FLAG 544 -80 Vo2
FLAG 464 -144 0
FLAG 464 112 0
FLAG -80 224 0
FLAG 1504 -80 0
FLAG 1504 -16 VGG
FLAG 1616 224 0
FLAG 1632 -128 0
FLAG 912 -144 vosc
FLAG 1808 -96 0
FLAG 1872 -224 Vfb
FLAG 2000 -96 0
FLAG 1968 -352 Vref
FLAG 1504 -336 Vref
FLAG 2064 -224 Vcmp
FLAG 1504 112 Vcom
FLAG 2160 -32 Vcom
FLAG 2336 -32 Vfb
FLAG 1808 112 0
FLAG 1776 -32 rt
FLAG 1888 -32 ct
FLAG 1920 112 0
FLAG 912 -80 ct
FLAG 912 -16 rt
FLAG 2000 -32 cst
FLAG 2032 112 0
FLAG 912 112 cst
FLAG 912 -336 Vfb
FLAG 1776 -352 Vo2
FLAG -528 96 VGG
FLAG 912 -272 Vcmp
SYMBOL voltage -640 -304 R0
WINDOW 123 0 0 Left 0
WINDOW 39 0 0 Left 0
SYMATTR InstName Vd
SYMATTR Value 300
SYMBOL ind2 -336 -192 M180
WINDOW 0 36 80 Left 2
WINDOW 3 36 40 Left 2
SYMATTR InstName L1
SYMATTR Value {Lm}
SYMATTR Type ind
SYMBOL ind2 80 -48 M0
SYMATTR InstName L3
SYMATTR Value {L22}
SYMATTR Type ind
SYMBOL diode 128 -64 R270
WINDOW 0 32 32 VTop 2
WINDOW 3 0 32 VBottom 2
SYMATTR InstName D2
SYMATTR Value MUR460
SYMBOL res 272 -96 M90
WINDOW 0 0 56 VBottom 2
WINDOW 3 32 56 VTop 2
SYMATTR InstName R2
SYMATTR Value 1
SYMBOL cap 448 -32 R0
SYMATTR InstName C2
SYMATTR Value 47µ
SYMBOL res 608 -48 R0
SYMATTR InstName R3
SYMATTR Value 100
SYMBOL ind2 80 -304 M0
SYMATTR InstName L2
SYMATTR Value {L21}
SYMATTR Type ind
SYMBOL diode 128 -320 R270
WINDOW 0 32 32 VTop 2
WINDOW 3 0 32 VBottom 2
SYMATTR InstName D3
SYMATTR Value MUR460
SYMBOL res 272 -352 M90
WINDOW 0 0 56 VBottom 2
WINDOW 3 32 56 VTop 2
SYMATTR InstName R4
SYMATTR Value 1
SYMBOL cap 448 -288 R0
SYMATTR InstName C3
SYMATTR Value 47µ
SYMBOL res 608 -304 R0
SYMATTR InstName R5
SYMATTR Value 100
SYMBOL nmos -368 16 R0
SYMATTR InstName M1
SYMATTR Value IRF530
SYMBOL ind2 -336 -80 M180
WINDOW 0 36 80 Left 2
WINDOW 3 36 40 Left 2
SYMATTR InstName L4
SYMATTR Value {Ld}
SYMATTR Type ind
SYMBOL res -96 -16 R90
WINDOW 0 0 56 VBottom 2
WINDOW 3 32 56 VTop 2
SYMATTR InstName R1
SYMATTR Value 100
SYMBOL cap -96 112 R0
SYMATTR InstName C1
SYMATTR Value 24n
SYMBOL diode -192 112 R270
WINDOW 0 32 32 VTop 2
WINDOW 3 0 32 VBottom 2
SYMATTR InstName D1
SYMATTR Value MUR460
SYMBOL SG3525A 1168 -240 R0
SYMATTR InstName U1
SYMATTR Value SG3525A
SYMBOL voltage 1632 -256 R0
WINDOW 123 0 0 Left 0
WINDOW 39 0 0 Left 0
SYMATTR InstName V1
SYMATTR Value 16
SYMBOL res 2304 -48 R90
WINDOW 0 0 56 VBottom 2
WINDOW 3 32 56 VTop 2
SYMATTR InstName R6
SYMATTR Value 10k
SYMBOL res 1792 -352 R0
SYMATTR InstName R7
SYMATTR Value 47k
SYMBOL res 1792 -224 R0
SYMATTR InstName R8
SYMATTR Value 1.8k
SYMBOL res 1984 -336 R0
SYMATTR InstName R9
SYMATTR Value 8.2k
SYMBOL res 1984 -224 R0
SYMATTR InstName R10
SYMATTR Value 1.5k
SYMBOL res 1792 -16 R0
SYMATTR InstName RT1
SYMATTR Value 2.7k
SYMBOL cap 1904 16 R0
SYMATTR InstName CT1
SYMATTR Value 3.3n
SYMBOL cap 2016 16 R0
SYMATTR InstName Cst1
SYMATTR Value 5µ
SYMBOL res -400 80 R90
WINDOW 0 0 56 VBottom 2
WINDOW 3 32 56 VTop 2
SYMATTR InstName R11
SYMATTR Value 100
SYMBOL res -464 -320 R270
WINDOW 0 32 56 VTop 2
WINDOW 3 0 56 VBottom 2
SYMATTR InstName R12
SYMATTR Value 1
TEXT -144 -376 Left 2 !K1 L1 L2 L3 1
TEXT -152 320 Left 2 !.param Fsw=75k Ts={1/Fsw} D=0.25 Ton={D*Ts}
TEXT -152 352 Left 2 !.param AL=4200n N1=25 N21=12 N22=4
TEXT -152 384 Left 2 !.param L1={AL*N1*N1} L21={AL*N21*N21} L22={AL*N22*N22}
TEXT -152 416 Left 2 !.param K=.99 Lm={K*L1} Ld={(1-K)*L1}
TEXT -152 496 Left 2 !.tran 0 20m 0 startup
TEXT 1032 -392 Left 2 !.inc SG3525A.sub
